 7
 O                 -0.76846100   -0.35898800   -1.22147600
 O                  2.09180300    0.53574000   -0.00381300
 O                 -0.76789900   -0.35409400    1.22221700
 P                 -1.84530100   -0.33658800   -0.00074900
Ca                  1.03664500   -1.32329300    0.00157000
Ca                  0.23048500    1.58636000    0.00040400
 H                 -2.10661800    1.20621000   -0.00366600
