 7
 O                 -0.92007800    0.55935700    0.36345800
 O                  1.07326100    1.87522200   -0.31261700
 O                  2.98341300   -1.62706700    0.26372500
 P                 -0.38076100    2.01500500    0.13766700
Ca                  1.30250800   -0.51094800   -0.19449400
Ca                 -2.45816100   -1.21515600   -0.06057400
 H                  3.73169800   -2.16310700    0.51984600
