 7
 O                 -0.26723300   -0.67091000    1.07531400
 O                  1.60743900    1.25283700   -0.40242400
 O                 -1.91615400    0.10620400   -0.70621800
 P                 -1.21317000   -1.21160600   -0.16722900
Ca                  1.68648200   -0.84877100   -0.09979500
Ca                 -0.43387300    1.57943400    0.21210100
 H                 -2.24705800   -1.94423000    0.52894000
