 7
 O                 -2.43208400   -1.24530600   -0.00096900
 O                 -2.41999900    1.24946500   -0.00077000
 O                  1.72519100   -0.00807600    0.00351700
 P                 -3.33517700    0.00634100   -0.00504200
Ca                 -0.39016600   -0.00712200    0.00650200
Ca                  3.84400000    0.00320500   -0.00296100
 H                  5.96610900    0.01455500   -0.00941400
