 7
 O                 -0.76917500   -0.35793800   -1.22146400
 O                 -0.76844200   -0.35253600    1.22205000
 O                  2.09321500    0.53262100   -0.00032900
 P                 -1.84536500   -0.33377700    0.00042400
Ca                  1.03365500   -1.32465300    0.00060500
Ca                  0.23330900    1.58569500   -0.00089900
 H                 -2.10359700    1.20863500   -0.00254500
