 7
 O                  1.72407200   -0.84111800    0.64579900
 O                  0.86406700   -1.10656800   -0.46667500
 O                  2.84640700   -0.01241500    0.09675100
 P                 -2.05010100    1.24608700    0.16280500
Ca                 -1.48570700   -1.41524100   -0.03948400
Ca                  0.68863600    1.29674200   -0.16540700
 H                  3.21655800   -0.64051100   -0.55124500
