 7
 O                  1.30526800    1.17348800   -0.60022000
 O                 -1.30603400    1.17321900   -0.60001600
 O                 -0.00007300   -0.11758500    1.17864000
 P                 -0.00026500    1.44350700    0.31763900
Ca                  1.65801100   -0.92873500   -0.09269600
Ca                 -1.65750100   -0.92935800   -0.09275000
 H                  0.00048000   -2.32374300   -0.88290600
