 7
 O                 -1.52123100    1.08411700   -0.47881900
 O                  0.04625600   -0.10291300    1.05649400
 O                  1.15923600    1.23613600   -0.70589100
 P                 -0.29463400    1.39365600    0.45569400
Ca                 -1.62381500   -1.17536100   -0.17816300
Ca                  1.90903000   -0.85777100   -0.04909200
 H                  1.24112000    2.01907600   -1.26458900
