 9
 O                 -1.96060800    0.48465300    0.85675800
 O                  0.52968700   -0.82149000   -0.77883300
 O                  0.66788100   -0.93525100    0.77258600
 O                  2.30450600    1.60042100    0.07811100
 P                 -2.76329500    0.85909600   -0.58411000
Ca                  0.04073600    1.34541400    0.16676600
Ca                  2.74506400   -0.61327100   -0.19102600
Ca                 -1.47442800   -1.62572000    0.09099200
 H                  2.89026100    2.35845400   -0.00195000

