 9
 O                  2.61662000   -0.00061400   -1.24295200
 O                  4.97102000    0.00070500   -0.00004600
 O                  2.61668000   -0.00013900    1.24299500
 O                 -3.93772000    0.00030500   -0.00000400
 P                  3.49792800   -0.00007700    0.00000900
Ca                  0.56685800   -0.00030900   -0.00000700
Ca                 -2.72561700    1.93681700   -0.00005900
Ca                 -2.72613300   -1.93657100    0.00006200
 H                 -4.90386100    0.00034600    0.00000000

