 9
 O                 -1.74986100   -1.35061300   -0.11949100
 O                 -4.03233800   -0.07721700   -0.14678300
 O                 -1.74602100    1.22099800   -0.13539400
 O                  1.37805500    0.13199500    0.65305100
 P                 -2.55670200   -0.05841000   -0.13711100
Ca                  0.43907800    2.03868000    0.14055600
Ca                  3.34265600   -0.04649800   -0.33976100
Ca                  0.47354200   -1.80025300    0.23152600
 H                  2.44631800   -2.36374700   -0.60081300

