 9
 O                  0.86341500   -1.85786500   -0.39813100
 O                 -1.57053400    1.25518800   -0.01429700
 O                  0.99259000    0.11243700    1.12009300
 O                 -0.80280900    0.18399500   -0.78119100
 P                 -0.02707400   -0.97246800    0.52016200
Ca                  0.57191600    2.09284700   -0.04584900
Ca                  2.84489300   -0.61326700   -0.25351200
Ca                 -2.94342400   -0.56461700   -0.05611200
 H                 -4.92289000   -1.26228600   -0.10473500

