 9
 O                  0.25972400   -1.10380200    1.48504400
 O                  2.00867800   -0.53806700   -0.99962400
 O                 -0.77935200    0.03837000    1.20706400
 O                  0.83712300    0.40019300   -1.27949300
 P                 -2.32356000   -0.45874800    0.39771400
Ca                  0.00683700   -1.70309100   -0.74311900
Ca                 -0.87324700    1.74542300   -0.68489500
Ca                  1.64291700    0.64834100    0.93122300
 H                  0.71387500    2.69420700    0.66619300

