 9
 O                 -0.14886000   -0.06248700    0.45717100
 O                  2.86216200    0.02646700   -0.23214500
 O                 -2.60015500    0.26388900    0.08346600
 O                 -0.79590300    2.27020200   -0.18955700
 P                 -1.42834700    0.88762800    0.89838200
Ca                  1.70888700   -1.63054100    0.48478300
Ca                 -1.66468800   -1.70200700   -0.68692600
Ca                  1.37139800    1.51746800   -0.51136500
 H                 -1.42469400    3.00262000   -0.15706200

