 9
 O                 -1.72608700    0.00589700    0.64049000
 O                  0.46179800    1.28112600    1.07518700
 O                  0.45440100   -1.28183800    1.07751400
 O                  0.21585300   -0.00409900   -1.71528200
 P                 -0.39125500    0.00226600    1.69282000
Ca                 -0.87371500   -1.64751300   -0.72457200
Ca                 -0.86319100    1.65072800   -0.72752200
Ca                  2.05902400   -0.00434800   -0.22207300
 H                  4.17875600   -0.02001200   -0.53223600

