 9
 O                  2.55868600   -0.09753000    0.85869200
 O                  1.21639700    0.58989700    0.82365900
 O                 -0.18726100   -1.42220500    0.03774800
 O                 -1.22629300    0.57971800    1.05379300
 P                 -0.05956500   -0.49779000    1.40112900
Ca                 -0.21501700    2.02658400   -0.49607600
Ca                 -2.48575500   -0.72679600   -0.48078200
Ca                  1.74450300   -0.83595100   -1.07730100
 H                  1.12662300    0.99106900   -2.12489900

