 9
 O                  2.45917800    0.99027300   -0.32011100
 O                  1.83079600   -1.48342900   -0.04910800
 O                 -2.21018200   -1.49784600   -0.81483300
 O                 -0.83190500    0.46700500    1.12436700
 P                  2.94555400   -0.47403100   -0.33756400
Ca                  0.42618800    1.94626900    0.18248800
Ca                 -0.46985700   -1.66352000    0.46224800
Ca                 -2.59593800    0.55881000   -0.31470800
 H                 -1.37424700    2.47127500   -1.05963900

