 9
 O                 -1.43891200   -0.00047300    1.63368100
 O                 -0.45656700    1.26141900   -0.33008800
 O                 -0.45542500   -1.26400400   -0.32873600
 O                  1.23791500    0.00036600    1.07269800
 P                 -0.28506500   -0.00077400    0.63768000
Ca                  1.79296800   -1.81967900   -0.35833000
Ca                  1.79093300    1.82139800   -0.35751700
Ca                 -2.69780200   -0.00009200   -0.50581800
 H                 -4.54209100    0.00061000   -1.51233400

