 9
 O                 -0.24452800   -1.26287900    0.66640300
 O                 -0.24563800    1.26185800    0.66683600
 O                  1.94670900    0.00052800    0.55554100
 O                 -3.99890500    0.00083600   -0.79559600
 P                  0.54232300   -0.00026300    1.43634100
Ca                 -2.10929300   -0.00129800    0.08544200
Ca                  1.48170200   -1.82132800   -0.76955600
Ca                  1.48015900    1.82261600   -0.76863700
 H                 -4.84731600    0.00141100   -1.23558800

