 9
 O                 -0.21112800   -1.45650700    1.04995800
 O                  0.00397700   -0.00164200   -1.63326800
 O                  1.36337400    0.54913900    1.05410400
 O                 -1.16132200    0.90937300    1.04695800
 P                 -0.00461000    0.00064600    1.58438900
Ca                  1.57992300   -1.23865900   -0.64420400
Ca                 -1.86044100   -0.74630400   -0.65213600
Ca                  0.28648700    1.98434800   -0.64862600
 H                 -0.00943500   -0.00029500    2.99147200

