 9
 O                  1.44126900   -1.45330000    0.77652800
 O                 -0.03406400    0.45559900    1.83652900
 O                 -0.08741800   -0.02477000   -0.63458500
 O                 -1.21280200   -1.65036900    0.85289300
 P                  0.13928500   -0.66955200    0.81234500
Ca                 -2.47622800   -0.30604000   -1.05483800
Ca                  2.44886400   -0.27693800   -1.05639700
Ca                 -0.04714800    2.24976200    0.28165300
 H                 -1.45493200   -1.90971000    1.75555400

