 9
 O                 -1.09108600   -1.69289900    0.76309800
 O                  1.52608200   -1.27140000    0.90427700
 O                 -0.18272700    0.53232600    1.74955700
 O                  0.05975900    0.02223100   -0.70479200
 P                  0.10368700   -0.69614000    0.84444000
Ca                  2.43496000   -0.09999800   -0.89822700
Ca                 -2.11883400   -0.66750000   -0.95701100
Ca                 -0.39140700    2.17969200    0.17099800
 H                 -2.54591500    1.47614400   -0.67894100

