 9
 O                 -1.51989200   -1.28524800    0.89566800
 O                  0.18243700    0.52080600    1.74904700
 O                  1.09928200   -1.69573800    0.75224500
 O                 -0.05860700    0.02199500   -0.70716100
 P                 -0.09978600   -0.70428800    0.83797400
Ca                  2.12624200   -0.64998200   -0.95555700
Ca                 -2.43549400   -0.10143100   -0.89570300
Ca                  0.37582700    2.18022000    0.18044700
 H                  2.53955100    1.49366300   -0.67174500

