 9
 O                 -4.45439500    1.24133000    0.08811400
 O                 -4.46122100   -1.23788900   -0.08367600
 O                  3.44281800   -0.77588300    0.13744800
 O                  3.44126500    0.77495600   -0.13740400
 P                 -5.37397500    0.00404900    0.00561300
Ca                  1.34200300   -0.00328700   -0.00550600
Ca                 -2.41472600   -0.00360000   -0.00496700
Ca                  5.53346400    0.00246300    0.00408800
 H                  7.64707200    0.00762600    0.00767100

