 9
 O                 -1.24212600    0.83317500    0.58478800
 O                  0.85835100   -0.59147200    0.18373200
 O                 -1.53530500   -1.62687800    0.22040900
 O                  1.89098900    0.20167700    0.98271000
 P                 -0.72516500   -0.65633000    1.14421900
Ca                  3.03776500   -0.78968700   -0.75062900
Ca                  0.70597600    1.83900200   -0.07876500
Ca                 -2.96252300   -0.10857800   -0.71739400
 H                 -4.52216400    0.49818000   -2.00065500

