 9
 O                 -2.12380100    1.32093800   -0.71825200
 O                 -2.12298400   -1.32156900   -0.71829700
 O                 -1.25650800   -0.00009800    1.22695300
 O                  1.38462400    0.00060300   -0.37166600
 P                 -2.34205900   -0.00038300    0.05783300
Ca                  3.53240300    0.00008400   -0.05317700
Ca                  0.02703700   -1.68221600    0.10549400
Ca                  0.02607600    1.68251200    0.10546400
 H                 -3.63008700   -0.00084800    0.62698000

