 9
 O                  1.97567600   -1.59611600   -0.02205300
 O                  2.44076200    0.91572800   -0.25438500
 O                 -0.83593900    0.56979200    0.80054600
 O                 -2.32674100   -1.67321300   -0.52389200
 P                  3.03063500   -0.50065500   -0.27388000
Ca                 -0.29246700   -1.52472400    0.42938100
Ca                 -2.80766300    0.58309000   -0.22229400
Ca                  0.46699100    2.14646500    0.05005600
 H                 -2.82680100   -2.31632100   -1.03638700

