 9
 O                 -1.83191200   -0.82282400    0.11698900
 O                  2.52436300   -1.12042500    0.79036500
 O                  2.50404800   -1.15383800   -0.78033700
 O                  0.49676100    1.21470500   -0.01615200
 P                 -3.49025400   -0.66557400   -0.18128700
Ca                  0.36072500   -1.15967400    0.03212900
Ca                  2.65756800    0.94409100   -0.04088500
Ca                 -1.67779200    1.49883700    0.04160600
 H                 -4.00229300   -0.62240500    1.17540100

