 9
 O                 -1.06395800    0.25669000   -0.77884000
 O                 -1.06425900    0.25693800    0.77884200
 O                  2.27695400    0.97075100    0.00053400
 O                  2.12078200   -1.56923200   -0.00092700
 P                  3.06021200   -0.34641900   -0.00015500
Ca                 -3.24234500   -0.23325300   -0.00026100
Ca                 -0.16949800   -1.75094900    0.00054400
Ca                  0.22091000    2.07100300   -0.00001400
 H                 -0.24066800    4.13910900    0.00007100

