 9
 O                  2.43992100   -0.82329600   -0.12072700
 O                  0.28512800   -2.37342300   -0.05255300
 O                 -2.79424100    0.50707600   -0.27259800
 O                  0.18948300    0.07733500    0.54419800
 P                  1.11991400   -1.22648500    0.55104500
Ca                 -1.72784100   -1.32428500   -0.43674900
Ca                  2.10210200    1.44630900   -0.50035000
Ca                 -1.33123500    1.92027200    0.38958000
 H                  1.37844600   -1.55018200    1.89816600

