 9
 O                  1.28815500   -1.82253000    0.63083200
 O                  2.46136800   -1.36814600   -0.16882400
 O                 -0.38331900   -0.25333300   -0.70020800
 O                  0.64670200    0.67797200    1.26889500
 P                  0.06318100   -0.76143300    0.84061900
Ca                  1.97111300    0.71013500   -0.79965400
Ca                 -0.97827000    2.07257900    0.22157500
Ca                 -2.49628700   -1.15304300   -0.46719400
 H                 -2.98207200    0.95635200    0.05060900

