 9
 O                 -0.37715700   -1.47713200    0.81598300
 O                  3.45245800    0.76580100    0.00316700
 O                  3.42119800   -0.50322900   -0.56913500
 O                 -0.14620300    0.53194300   -1.35231900
 P                 -1.33746600   -0.34609400    1.67132700
Ca                  1.44985500   -0.17703500    0.46559000
Ca                 -1.39841800    2.03903000   -0.10188300
Ca                 -1.60383600   -1.36505000   -1.06689900
 H                  0.30760900    0.71344800   -2.18762300

