 9
 O                 -0.88890900    0.24136700   -0.53757300
 O                  2.73684600    0.13440200    0.20221800
 O                  2.06606300   -0.00430900   -1.07622400
 O                  2.24207600   -0.93241500    1.09394100
 P                 -0.79451300    0.22860200    1.44949100
Ca                 -3.09171000   -0.08192600   -0.22234300
Ca                  0.75285000    1.79104200   -0.32515600
Ca                  0.39956200   -1.63226800   -0.49003600
 H                  1.45505100   -0.47833300    1.54942800

