 9
 O                  1.66424300   -0.00185900    1.36458000
 O                 -0.61466300   -1.30350800    1.37659400
 O                  0.11664100   -0.00019900   -0.66391500
 O                 -0.61216200    1.30392700    1.37696800
 P                  0.15584500   -0.00054900    1.04609200
Ca                 -1.52412000   -1.77361500   -0.65475200
Ca                 -1.52171600    1.77532800   -0.65381000
Ca                  2.50591800   -0.00069100   -0.74761700
 H                  4.02821700    0.00091500   -2.20163300

