 9
 O                  1.56920300    0.81609300   -0.42683200
 O                  2.67934400   -1.32090100    0.23355400
 O                 -1.51719300   -1.85645000   -0.73834400
 O                 -1.01493100    0.45716100    1.20755700
 P                  2.94113000    0.09661700   -0.28258700
Ca                 -0.25927100    2.28736100   -0.08049600
Ca                  0.27577000   -1.36534800    0.32460600
Ca                 -2.84580800   -0.26832900   -0.24803400
 H                 -1.26215500    0.70984700    2.10978800

