 8
 O                 -2.33343700    0.77406600   -0.03104900
 P                 -2.21487600   -0.83147400   -0.06540300
 H                 -2.44411800   -1.18573500    1.34337700
 O                 -0.54419100   -1.03294400   -0.05564100
Ca                  1.61368500   -1.24334400   -0.00679500
 O                  1.87838600    0.81013100    0.80568700
 O                  1.89359200    0.82865200   -0.76402600
Ca                 -0.18806100    1.37427400    0.00669000
