 8
 O                 -0.04807200    1.49242000   -0.17454100
 O                 -0.37058500   -1.86861200   -0.19326000
Ca                  1.65485000   -1.51835400    0.10641200
 P                  1.41618800    1.88691800   -0.01573600
 O                  2.34652700    0.65831400    0.15619700
Ca                 -1.76788000   -0.18826400   -0.17678700
 O                 -3.72567500    0.37433700    0.33404100
 H                 -4.59977500    0.57690900    0.66404300
