 8
 O                 -2.54528400   -0.37891400    0.06948500
 P                 -1.80260200   -1.72459400    0.06880000
Ca                 -1.91277700    1.85634800   -0.01936000
 O                 -0.27586200   -1.54474800   -0.01671100
Ca                  1.38145600    0.04186000   -0.14096000
 O                  3.53042700    0.00747300   -0.69292300
 O                  3.49064700    0.27343400    0.80410300
 H                  4.06603400    1.04679300    0.86276800
