 8
 O                 -0.15649200   -0.37495600    1.49452200
 O                  1.33047200   -0.70415500    1.12682600
 P                  1.61332600   -0.90213400   -0.49078600
 O                  1.62891400    0.86828700   -0.96308600
 H                  2.55570500    1.14129500   -0.95355200
Ca                 -1.42055400   -1.23764600   -0.27158200
 O                 -1.97130400    0.78679800   -0.66410900
Ca                 -0.24986100    1.62679200    0.28968800
