 8
 O                 -2.57871000    0.30845000   -0.00049700
 O                 -0.53953400   -1.11640600    0.00084900
 P                 -2.08583800   -1.15395300   -0.00001700
Ca                 -0.50675300    1.43120800   -0.00008600
Ca                  1.94041300   -0.99617400   -0.00023000
 H                  3.12509200   -2.76183000   -0.00153700
 O                  1.52701300    1.11432900    0.78560900
 O                  1.52739100    1.11493100   -0.78494600
