 8
 O                 -1.15784200   -1.12673500    0.12919500
 O                 -0.37321400   -0.55490900    1.37616800
Ca                 -0.04103300    1.53132200    0.31941100
 P                 -2.31793300   -0.06152100   -0.56848300
 H                 -3.31753900   -0.13763000    0.45708300
 O                  1.31090200    0.57163000   -1.22576600
 O                  2.09834400    0.72898100    0.11554600
Ca                  1.19408400   -1.32588700   -0.07396000
