 8
 O                  2.05496700    0.75139100   -0.39497000
 P                  2.05071600   -0.82534300   -0.34884900
 H                  2.54050700   -1.13088100    0.97924700
 O                  0.41378200   -1.25917000    0.03888000
 O                 -0.17027400   -0.59020700    1.30635400
Ca                 -1.89676600   -0.91431800   -0.18101100
 O                 -1.88055900    1.15876300   -0.61069200
Ca                  0.06453800    1.56555800    0.25785600
