 8
 O                  1.52360200   -0.13823800    0.00000000
 O                  1.75265100   -1.57146800    0.00000000
Ca                 -0.00082200   -2.80520300    0.00000000
 O                 -1.75236800   -1.57121500    0.00000000
 O                 -1.52289400   -0.13824600    0.00000000
 P                  0.00000000    0.67182700    0.00000000
 H                  0.00033100    5.48494300    0.00000000
Ca                  0.00040900    3.39475300    0.00000000
