 8
 O                  1.30810800    0.76638200   -0.87825100
 O                 -1.27965300    0.80949100   -0.87987800
 P                  0.02011300    1.17129900   -0.03356300
 O                  0.04161400    2.49364600    0.65618700
 O                 -0.00256900   -0.13783800    1.06999900
Ca                 -1.71333400   -1.13024100    0.02968700
Ca                  1.67350900   -1.18819400    0.02972200
 H                 -0.04520400   -2.65423800   -0.42920500
