 8
 O                 -0.29889100   -1.13700600    1.07803900
 O                 -0.55107700    0.32761600    1.45495900
Ca                 -1.92403700   -0.04527800   -0.27345300
 P                  0.92582700   -1.31362400   -0.25975300
 H                 -1.42067500    2.16099300   -0.62140700
 O                  0.05744200   -0.37116400   -1.31475200
Ca                  0.78476600    1.52656700   -0.04996500
 O                  2.08236200   -0.32974700    0.15501000
