 8
 O                 -2.19560400    0.81814400   -0.39647600
 O                  0.31859500    1.66172300   -0.57558200
 P                 -0.84828300    1.20253700    0.36547100
Ca                 -2.03354700   -1.37389900   -0.16044300
 O                 -0.31120900   -0.35014800    0.83784400
Ca                  1.84984200    0.06157500    0.01832500
 O                  3.67333100   -0.93218000   -0.16442100
 H                  4.51742200   -1.37188000   -0.25064300
