 8
 O                  2.95744100   -0.81105100    0.90954100
 H                  3.77886100   -0.32770700    1.06406900
 O                  3.06956300   -1.08810800   -0.58309800
 O                  0.48373300    2.09805300   -0.27698000
 P                 -0.99164400    2.00577300    0.11520500
Ca                 -2.57572300   -1.52864500   -0.00195900
 O                 -1.31219800    0.47956700    0.27648100
Ca                  1.05109700   -0.23068400   -0.26802700
