 8
 O                  3.71768100    0.48955200   -0.00179000
 H                  4.61553900    0.81688200   -0.00150400
Ca                  1.75953000   -0.21829400    0.00125800
 O                 -0.25752500   -0.23246900   -1.21076100
 P                 -0.94493700   -1.18750900   -0.00258900
 O                 -2.45787700   -0.72017300   -0.00385100
 O                 -0.26071100   -0.24282600    1.21356300
Ca                 -1.57823200    1.35044800    0.00189500
