 8
Ca                 -0.50648600    1.43156100   -0.00136200
 O                 -2.57836000    0.30873900    0.00189900
 P                 -2.08578600   -1.15382600    0.00067200
 O                 -0.53954300   -1.11685600   -0.00346500
 O                  1.52863600    1.11530300   -0.78360100
 O                  1.52611800    1.11371800    0.78686900
Ca                  1.93999600   -0.99634800    0.00015900
 H                  3.12176500   -2.76409100    0.00036400
