 8
 O                 -1.65643000   -3.52619200    0.00000000
 O                 -0.27884500   -3.95881200    0.00000000
 O                  1.65430900    2.38680500    0.00000000
 O                  0.00000000    0.48816100    0.00000000
 P                  1.60587100    0.83135600    0.00000000
Ca                 -0.34524400   -1.78038900    0.00000000
 H                 -2.36478500    3.96747800    0.00000000
Ca                 -0.62853400    2.80251300    0.00000000
