 8
 O                  2.72159200   -0.42990600    0.00000000
 P                  1.00131700   -0.43718600    0.00000000
 O                  3.15621000   -1.83233400    0.00000000
 H                  2.31906900   -2.34386400    0.00000000
 O                  0.19767600   -1.82366800    0.00000000
Ca                 -1.89313700   -0.84374200    0.00000000
Ca                 -1.40399500    2.59467400    0.00000000
 O                  0.00000000    0.82128500    0.00000000
