 8
 O                  0.45324200   -1.46057800    1.28076100
 O                  0.45324200   -1.46057800   -1.28076100
 P                  0.90005500   -2.18622800    0.00000000
 H                 -2.11119100    0.21717000    0.00000000
Ca                 -0.64733400    0.53464600   -1.67556700
 O                  0.45324200    2.15997900   -0.73326200
 O                  0.45324200    2.15997900    0.73326200
Ca                 -0.64733400    0.53464600    1.67556700
