 8
 O                 -2.94612100   -0.18741700    0.01718200
 H                 -3.35971500    0.35796300   -0.67730500
 O                 -1.92678900    0.79748300    0.54624700
 O                 -1.07384000    1.10709500   -0.55366500
 O                  1.04425800   -0.42610400    0.99343700
 P                  2.09450400   -1.11679800   -0.21657600
Ca                 -0.70523500   -1.25910200   -0.13912100
Ca                  1.26334000    1.56238000   -0.06586300
