 8
 O                 -4.17924600   -0.99538000    0.38332100
 H                 -4.85238600   -0.42615000   -0.01772200
 O                 -2.97677500   -0.34092200   -0.04974000
 O                  1.47837300    0.30391400    0.39912000
 P                  1.45578200    1.85971000    0.19691200
 O                  0.05258800    2.20931400   -0.30016800
Ca                  2.34307600   -1.87735900   -0.05137300
Ca                 -0.94227000    0.03311400   -0.26843800
