 8
 O                 -2.55849200    1.24614300   -0.00792200
 P                 -3.47091300    0.00055400   -0.00043900
 O                 -2.55965900   -1.24584600    0.00790200
 O                  1.55614700   -0.01329400   -0.78833900
 O                  1.55647600    0.01171700    0.78837800
Ca                 -0.53133400   -0.00039300    0.00057800
Ca                  3.64874300    0.00041800   -0.00023500
 H                  5.75974600    0.00143100   -0.00042400
