 8
 O                 -2.25747300   -1.97759000    0.09371300
 P                 -0.93251700   -1.33376200    0.09599400
 O                  0.36189700   -1.87060000   -0.47858600
 O                 -0.69265700    0.11030200    0.62432000
Ca                 -1.65447600    2.14477700   -0.12574700
Ca                  1.69263900    0.09619300   -0.16178400
 O                  3.66938800    0.54086700    0.24314500
 H                  4.57525000    0.76318600    0.44996300
