 9
 O                 -0.45761400    1.28103700    1.07594200
 O                 -0.21759100   -0.00039500   -1.71774500
 O                 -0.45696400   -1.28088000    1.07647100
 O                  1.72674800    0.00052400    0.64142600
 P                  0.39174900    0.00042100    1.69363900
Ca                  0.86752200    1.64741200   -0.72710800
Ca                  0.86817400   -1.64743000   -0.72659100
Ca                 -2.05839800   -0.00037400   -0.22018500
 H                 -4.17884200   -0.00077800   -0.53566400

