 9
 O                 -1.56885900    0.81628500   -0.42616200
 O                  1.51729800   -1.85583900   -0.73904900
 O                 -2.67991400   -1.32050500    0.23369500
 O                  1.01443700    0.45641700    1.20743600
 P                 -2.94117000    0.09733900   -0.28182700
Ca                  2.84578900   -0.26833700   -0.24695000
Ca                 -0.27611200   -1.36557900    0.32350900
Ca                  0.25988900    2.28686500   -0.08101500
 H                  1.26253100    0.71005800    2.10916000

