 9
 O                  0.29179900   -1.45345000    0.09773800
 O                  0.16393100    0.95336800    0.95684500
 O                 -3.50688300    0.23060900   -1.19341100
 O                 -3.94546000   -0.24633500    0.18325900
 P                  0.80248600   -0.53154200    1.44067100
Ca                 -1.63470800   -0.17527800   -0.05519600
Ca                  1.65072800    2.18106500   -0.31511400
Ca                  2.41116600   -1.42182400   -0.74803900
 H                 -4.60810700    0.42033100    0.40147400

