 9
 O                  1.25114500   -0.40633800   -0.96298300
 O                 -2.40818800   -0.96397700   -0.50876700
 O                  2.63756900    0.58354400    0.91686300
 O                 -1.99470200   -0.77425500    0.99319500
 P                  2.35381500   -0.81226700    0.22243300
Ca                 -2.51947500    1.22393100    0.08623600
Ca                  1.14329200    1.84508900   -0.26823000
Ca                 -0.36034300   -1.78103800   -0.13206400
 H                  3.53668800   -1.08740600   -0.56178500

