 9
 O                 -2.61599400   -1.74254500    0.13980700
 O                 -1.74966800    0.57588400   -0.15458000
 O                  1.30183300   -0.17166600   -0.11319600
 O                  0.44437300    3.84809300    0.27863100
 P                 -3.03427800   -0.27392200   -0.02717700
Ca                  0.27841600    1.80911100   -0.16067000
Ca                  3.25824900   -1.12894800    0.01079100
Ca                 -0.23950900   -1.71646900    0.08180700
 H                  0.52670900    4.75681800    0.56379200

