 9
 O                 -0.75074600    0.97494300    1.35173200
 O                  0.28380800   -0.48647000   -0.45446600
 O                 -2.03013600    0.42539600    0.73472900
 O                  1.77644000    0.30722000    1.40860600
 P                  0.36850800   -0.35494100    1.26070600
Ca                 -1.01806700    1.62383700   -0.94110400
Ca                  2.64985000   -0.23112900   -0.64564100
Ca                 -1.83445600   -1.59475000   -0.47751000
 H                  4.29092000   -0.40376200   -1.95029700

