 9
 O                  1.08561300   -1.27876300    0.72865800
 O                  1.08646000    1.28218100    0.72346900
 O                 -0.63184100   -0.00221000   -1.34587500
 O                 -2.12837200   -0.00163300   -0.97687600
 P                  0.87414000    0.00379200    1.73633900
Ca                 -1.13052000    1.67368400    0.19804500
Ca                 -1.13139600   -1.67281000    0.20431300
Ca                  1.68373400   -0.00296700   -1.21909800
 H                  3.15667600   -0.01162600   -2.74530200

