 9
 O                 -1.28467100   -1.97287000   -0.18135700
 O                  0.03281900   -1.33533600    0.06430700
 O                 -1.00363900    0.85090600    0.90152400
 O                  1.46601700    0.39540100    1.01536900
 P                  0.03896900   -0.24351700    1.48442800
Ca                 -2.49379900   -0.08533200   -0.60446500
Ca                  0.49818400    2.05588700   -0.46400900
Ca                  2.18609200   -1.00428100   -0.67129500
 H                  1.92173300    0.82246600   -1.86977800

