 9
 O                 -0.68425900   -0.00405100    2.40194100
 O                 -0.64354800    1.25268400    0.09349300
 O                 -0.64112500   -1.25392000    0.09000100
 O                  1.43244900    0.00100200    0.78098700
 P                 -0.15798100   -0.00142500    1.00799800
Ca                  1.49282100    1.84502200   -0.62521200
Ca                  1.49608700   -1.84191200   -0.62789100
Ca                 -2.44881400   -0.00055500   -0.74952900
 H                 -4.14030000    0.00454000   -1.99871100

