 9
 O                 -2.09568400   -1.56256200    0.28105500
 O                 -0.87266600    0.38573600    1.32194300
 O                 -0.02396500   -0.54092300   -0.79696100
 O                  2.69357300    0.80792100    0.07658300
 P                 -0.64136200   -1.12034000    0.71230500
Ca                  0.72851300    1.71466300    0.24413200
Ca                  2.12851900   -1.17664800   -0.38497700
Ca                 -2.19818400    0.54020100   -0.69826400
 H                 -1.16658500    2.51939400   -0.96336500

