 9
 O                 -0.45465300   -1.28235000    1.07579500
 O                 -0.45985100    1.27977500    1.07664700
 O                 -0.21797800   -0.00030200   -1.71766800
 O                  1.72665500    0.00324600    0.64136600
 P                  0.39201300    0.00026200    1.69350600
Ca                  0.86380000    1.64962500   -0.72642800
Ca                  0.87150500   -1.64556600   -0.72720800
Ca                 -2.05800700   -0.00442200   -0.22051800
 H                 -4.17955100    0.00038100   -0.52862800

