 9
 O                  3.77350900   -0.87200200   -0.90661100
 O                  2.02584500    1.07003200   -0.70708700
 O                 -1.38768300    0.18631800   -0.33979900
 O                  0.45350700    0.23272400    2.03839500
 P                  2.37192200   -0.43769800   -0.63496200
Ca                  0.07957700    1.69521700    0.31359500
Ca                 -0.37146500   -1.45335600    0.74123100
Ca                 -3.49206200   -0.17197900   -0.74613200
 H                  1.17875200    0.23123900    2.67136700

