 9
 O                  0.45033200   -1.28372700    1.07612600
 O                 -1.72962000    0.00280500    0.63614500
 O                  0.45609400    1.27818100    1.07931800
 O                  0.22511400    0.00256800   -1.71592400
 P                 -0.39747700   -0.00194700    1.69244300
Ca                 -0.85961900    1.65194000   -0.72650700
Ca                 -0.87039700   -1.64475100   -0.73147700
Ca                  2.05830900   -0.00532400   -0.21548100
 H                  4.18092100   -0.00672000   -0.52267900

