 9
 O                 -0.04381000   -0.24009800    0.30338900
 O                 -1.04698800    2.18219800    0.12272900
 O                 -2.60375900    0.09188900   -0.01903400
 O                  2.85396100    0.42303600   -0.24564600
 P                 -1.53314200    0.85674100    0.86524500
Ca                  0.96675100    1.60234400   -0.57160500
Ca                 -1.50637200   -1.74506400   -0.64818500
Ca                  1.83601100   -1.50917800    0.52728300
 H                  3.79410700    0.53066300   -0.42003100

