 9
 O                 -1.51687500   -0.28162300   -0.80973100
 O                  1.78240600   -1.29564500    0.84934700
 O                  1.97482300   -1.29607900   -0.71210400
 O                  0.80069900    2.34206800    0.08076900
 P                 -2.55792300   -0.60832300    0.55483600
Ca                  2.26748600    0.78498700    0.12979500
Ca                 -0.11749600   -1.91979100   -0.16413600
Ca                 -1.25790400    1.85180900   -0.14191800
 H                 -3.80128000   -0.96502400   -0.06363700

