 9
 O                  0.00304000    0.00752300   -1.67172400
 O                  0.71822100   -1.25736100    1.00926700
 O                  0.71203900    1.25028200    1.02114100
 O                 -1.63106400   -0.00835700    0.91030900
 P                  0.16131900   -0.00861100    1.83202100
Ca                  1.97957400    0.00782800   -0.64465100
Ca                 -0.94869100   -1.73913000   -0.66531500
Ca                 -0.95674400    1.74160700   -0.65118700
 H                 -2.32043700   -0.01364800    1.59078300

