 9
 O                  0.69790000   -1.26603700    1.01155100
 O                  0.74213900    1.24121000    1.01325700
 O                 -0.00393200   -0.00009300   -1.67240500
 O                 -1.62700500    0.02869600    0.91720900
 P                  0.17120100   -0.00352800    1.83216700
Ca                 -0.98833200   -1.72195200   -0.65412400
Ca                  1.97644300   -0.03505500   -0.65307900
Ca                 -0.92440200    1.75580600   -0.65471100
 H                 -2.31499100    0.04674100    1.59888100

