 9
 O                 -0.25633500   -1.44332700    0.78198600
 O                 -0.49105700    0.56401100   -1.35462700
 O                  3.58344900   -0.36927100   -0.59751700
 O                  3.45802000    0.57786800    0.58532800
 P                 -1.30482900   -0.53654100    1.74887000
Ca                 -1.36687000    2.04233900    0.02128800
Ca                 -1.75833900   -1.22182700   -0.94205500
Ca                  1.38469300   -0.15677300   -0.21834200
 H                  4.03012600    0.13908300    1.22777100

