 9
 O                 -0.14878200   -0.06303500    0.45832800
 O                  2.86155000    0.03060000   -0.23169500
 O                 -2.60021100    0.26001600    0.08329200
 O                 -0.79937300    2.26904400   -0.18761500
 P                 -1.42980500    0.88503500    0.89949300
Ca                  1.71109000   -1.62807200    0.48597700
Ca                 -1.66087300   -1.70302200   -0.68855400
Ca                  1.36826500    1.51859500   -0.51332700
 H                 -1.42803700    3.00145200   -0.15280700

