 9
 O                  1.77907300    1.08013900   -0.88019800
 O                  2.17620700    1.29975800    0.49925500
 O                 -2.41034200    1.41166300   -0.44359700
 O                  2.51702300   -0.00097200    1.11197300
 P                 -0.34015000   -1.46950300    0.91456200
Ca                 -2.83497000   -0.64468100   -0.11741400
Ca                  1.72372400   -1.27530600   -0.88592700
Ca                 -0.33871900    1.52246700    0.13010900
 H                  1.60585200   -0.33175000    1.44676700

