 9
 O                 -1.19305300   -0.48516900   -0.74042500
 O                 -1.29941900   -0.44290600    0.81403600
 O                  1.47890500    0.90459200    0.24578800
 O                  2.92323200   -1.10947200   -0.31901600
 P                  3.05916100    0.49560300   -0.19469000
Ca                 -0.57212700    1.67988900    0.01406300
Ca                 -3.44721200   -0.30185200   -0.11508000
Ca                  0.77831900   -1.32889000    0.19013900
 H                  3.65567600    0.64665400    1.13483900

