 9
 O                 -1.40882800    0.41452100    0.88744300
 O                  0.47139800   -1.17021300    0.13096600
 O                  0.97463600    1.16692800    0.61316300
 O                 -0.25403100   -2.47127800    0.29865600
 P                  0.07405700    0.05285300    1.40867400
Ca                 -1.83524000   -1.22280300   -0.72933300
Ca                 -0.85838500    2.22960300   -0.51652700
Ca                  2.50489000   -0.20770600   -0.51211600
 H                  4.39843100   -0.29432100   -1.41240400

