 9
 O                 -0.45405200   -1.28049800    1.07820500
 O                 -0.45605600    1.28158500    1.07638300
 O                 -0.22336300   -0.00104500   -1.71521600
 O                  1.72891000    0.00130800    0.63750600
 P                  0.39542700    0.00140600    1.69267900
Ca                  0.86746700   -1.64693000   -0.72743400
Ca                  0.86537100    1.64697700   -0.72905400
Ca                 -2.05860600   -0.00171600   -0.21729600
 H                 -4.17955800    0.00148500   -0.52953400

