 9
 O                  1.83285000   -0.82233800    0.12849900
 O                 -0.49715900    1.21689800    0.02134900
 O                 -2.48332400   -1.15224200   -0.79976600
 O                 -2.54210500   -1.12288800    0.77010900
 P                  3.48421700   -0.66748200   -0.20835800
Ca                  1.67839500    1.49875500    0.04701900
Ca                 -0.36067300   -1.15865100    0.06406900
Ca                 -2.65632100    0.94357700   -0.05970600
 H                  4.02663200   -0.61681500    1.13619300

