 9
 O                  0.31259700    0.78794800   -1.36070400
 O                 -2.42624800   -0.37438600   -0.58773700
 O                  1.57193200   -1.32589800    0.32796200
 O                 -2.98018200   -0.17542800    0.78253900
 P                  1.00374500   -0.50601800    1.76254100
Ca                 -0.31533400   -1.33191200   -0.88166200
Ca                  2.30331700    0.73932900   -0.38271000
Ca                 -1.13562900    1.41392900    0.24838300
 H                 -3.92805700   -0.13456000    0.58517300

