 9
 O                 -2.35066300    0.81937200    0.73478600
 O                 -2.16200300    1.16495800   -0.77667700
 O                  0.28957500   -0.65708100   -0.64077500
 O                  2.07819300    1.73909600   -0.04994200
 P                  0.46517800   -1.65399500    0.94845900
Ca                  2.52068500   -0.46080000   -0.38072400
Ca                 -0.18596200    1.41149000    0.37619500
Ca                 -1.95791600   -1.06171800   -0.41889200
 H                  2.64537200    2.49973900    0.10241500

