 9
 O                 -2.52833100   -0.18032500   -0.51236900
 O                  0.65420800   -0.04628200   -0.38804300
 O                 -2.19830200   -0.72808200    0.91961900
 O                  0.57643200    2.46588900    0.03393300
 P                  1.37932700    1.42861200   -0.85306500
Ca                  2.39589200   -1.26062900    0.61849900
Ca                 -0.91747700   -1.75154900   -0.62148900
Ca                 -1.24687000    1.27909800    0.62420700
 H                  2.64714000    1.14281900   -0.05348500

